{
   "completed_at" : "20170224T180054Z",
   "completed_status" : "Success",
   "current_step" : 1,
   "eplusout_err" : "Program Version,EnergyPlus, Version 8.6.0-198c6a3cff, YMD=2017.02.24 11:00,IDD_Version 8.6.0\n   ** Warning ** Timestep: Requested number (1) is less than the suggested minimum of 4.\n   **   ~~~   ** Please see entry for Timestep in Input/Output Reference for discussion of considerations.\n   ************* Beginning Zone Sizing Calculations\n   ** Warning ** ProcessScheduleInput: Schedule:Day:Interval=\"ALL WEEKDAYS\", , One or more values are not integer as required by Schedule Type Limits Name=HVAC OPERATION SCHEDULE TYPE LIMITS\n   ** Warning ** ProcessScheduleInput: DecodeHHMMField, Invalid \"until\" field value is not a multiple of the minutes for each timestep: 12:45\n   **   ~~~   ** Other errors may result. Occurred in Day Schedule=ALL WEEKDAYS 1\n   ** Warning ** ProcessScheduleInput: DecodeHHMMField, Invalid \"until\" field value is not a multiple of the minutes for each timestep: 06:45\n   **   ~~~   ** Other errors may result. Occurred in Day Schedule=ALL WEEKDAYS 2\n   ** Warning ** ProcessScheduleInput: DecodeHHMMField, Invalid \"until\" field value is not a multiple of the minutes for each timestep: 06:15\n   **   ~~~   ** Other errors may result. Occurred in Day Schedule=ALL WEEKDAYS 3\n   ** Warning ** ProcessScheduleInput: DecodeHHMMField, Invalid \"until\" field value is not a multiple of the minutes for each timestep: 06:15\n   **   ~~~   ** Other errors may result. Occurred in Day Schedule=ALL WEEKDAYS 4\n   ** Warning ** ProcessScheduleInput: Schedule:Day:Interval=\"ALL WEEKENDS\", , One or more values are not integer as required by Schedule Type Limits Name=HVAC OPERATION SCHEDULE TYPE LIMITS\n   ** Warning ** ProcessScheduleInput: Schedule:Day:Interval=\"ALL WEEKENDS 7\", , One or more values are not integer as required by Schedule Type Limits Name=HVAC OPERATION SCHEDULE TYPE LIMITS\n   ** Warning ** ProcessScheduleInput: Schedule:Day:Interval=\"BUILDING HVAC OPERATION DEFAULT WEEKDAY SCHEDULE\", , One or more values are not integer as required by Schedule Type Limits Name=HVAC OPERATION SCHEDULE TYPE LIMITS\n   ** Warning ** ProcessScheduleInput: DecodeHHMMField, Invalid \"until\" field value is not a multiple of the minutes for each timestep: 06:15\n   **   ~~~   ** Other errors may result. Occurred in Day Schedule=BUILDING PLUG LOAD DEFAULT WEEKDAY SCHEDULE\n   ** Warning ** ProcessScheduleInput: DecodeHHMMField, Invalid \"until\" field value is not a multiple of the minutes for each timestep: 06:45\n   **   ~~~   ** Other errors may result. Occurred in Day Schedule=BUILDING WATER USE DEFAULT WEEKDAY SCHEDULE\n   ** Warning ** ProcessScheduleInput: Schedule:Day:Interval=\"SIMUWATT DEFAULT SUMMER CLG SCH - 68F\", Blank Schedule Type Limits Name input -- will not be validated.\n   ** Warning ** ProcessScheduleInput: Schedule:Day:Interval=\"SIMUWATT DEFAULT SUMMER HTG SCH - 68F\", Blank Schedule Type Limits Name input -- will not be validated.\n   ** Warning ** ProcessScheduleInput: Schedule:Day:Interval=\"SIMUWATT DEFAULT WINTER CLG SCH - 68F\", Blank Schedule Type Limits Name input -- will not be validated.\n   ** Warning ** ProcessScheduleInput: Schedule:Day:Interval=\"SIMUWATT DEFAULT WINTER HTG SCH - 68F\", Blank Schedule Type Limits Name input -- will not be validated.\n   ** Warning ** ProcessScheduleInput: DecodeHHMMField, Invalid \"until\" field value is not a multiple of the minutes for each timestep: 16:15\n   **   ~~~   ** Other errors may result. Occurred in Day Schedule=SPACE OCCUPANCY DEFAULT WEEKDAY SCHEDULE\n   ** Warning ** ProcessScheduleInput: Schedule:Constant=\"ALWAYS OFF DISCRETE\", Blank Schedule Type Limits Name input -- will not be validated.\n   ** Warning ** ProcessScheduleInput: Schedule:Constant=\"ALWAYS ON CONTINUOUS\", Blank Schedule Type Limits Name input -- will not be validated.\n   ** Warning ** GetHTSurfaceData: Surfaces with interface to Ground found but no \"Ground Temperatures\" were input.\n   **   ~~~   ** Found first in surface=ENTRY WAY  FLOOR\n   **   ~~~   ** Defaults, constant throughout the year of (18.0) will be used.\n   ** Warning ** GetSurfaceData: InterZone Surface Tilts do not match as expected.\n   **   ~~~   **   Tilt=0.0 in Surface=LEVEL 0 ENTRY WAY  CEILING PLENUM DROPPEDCEILING, Zone=LEVEL 0 CEILING PLENUM ZONE\n   **   ~~~   **   Tilt=0.0 in Surface=ENTRY WAY  DROPPEDCEILING, Zone=SINGLE ZONE\n   ** Warning ** GetSurfaceData: InterZone Surface Classes do not match as expected.\n   **   ~~~   ** Surface=\"LEVEL 0 ENTRY WAY  CEILING PLENUM DROPPEDCEILING\", surface class=Roof\n   **   ~~~   ** Adjacent Surface=\"ENTRY WAY  DROPPEDCEILING\", surface class=Roof\n   **   ~~~   ** Other errors/warnings may follow about these surfaces.\n   ** Warning ** GetSurfaceData: InterZone Surface Tilts do not match as expected.\n   **   ~~~   **   Tilt=0.0 in Surface=LEVEL 0 OPEN AREA 1 CEILING PLENUM DROPPEDCEILING, Zone=LEVEL 0 CEILING PLENUM ZONE\n   **   ~~~   **   Tilt=0.0 in Surface=OPEN AREA 1 DROPPEDCEILING, Zone=SINGLE ZONE\n   ** Warning ** GetSurfaceData: InterZone Surface Classes do not match as expected.\n   **   ~~~   ** Surface=\"LEVEL 0 OPEN AREA 1 CEILING PLENUM DROPPEDCEILING\", surface class=Roof\n   **   ~~~   ** Adjacent Surface=\"OPEN AREA 1 DROPPEDCEILING\", surface class=Roof\n   **   ~~~   ** Other errors/warnings may follow about these surfaces.\n   ** Warning ** GetSurfaceData: InterZone Surface Tilts do not match as expected.\n   **   ~~~   **   Tilt=0.0 in Surface=LEVEL 0 SMALL OFFICE 1 CEILING PLENUM DROPPEDCEILING, Zone=LEVEL 0 CEILING PLENUM ZONE\n   **   ~~~   **   Tilt=0.0 in Surface=SMALL OFFICE 1 DROPPEDCEILING, Zone=SINGLE ZONE\n   ** Warning ** GetSurfaceData: InterZone Surface Classes do not match as expected.\n   **   ~~~   ** Surface=\"LEVEL 0 SMALL OFFICE 1 CEILING PLENUM DROPPEDCEILING\", surface class=Roof\n   **   ~~~   ** Adjacent Surface=\"SMALL OFFICE 1 DROPPEDCEILING\", surface class=Roof\n   **   ~~~   ** Other errors/warnings may follow about these surfaces.\n   ** Warning ** GetSurfaceData: InterZone Surface Tilts do not match as expected.\n   **   ~~~   **   Tilt=0.0 in Surface=LEVEL 0 UTILITY 1 CEILING PLENUM DROPPEDCEILING, Zone=LEVEL 0 CEILING PLENUM ZONE\n   **   ~~~   **   Tilt=0.0 in Surface=UTILITY 1 DROPPEDCEILING, Zone=SINGLE ZONE\n   ** Warning ** GetSurfaceData: InterZone Surface Classes do not match as expected.\n   **   ~~~   ** Surface=\"LEVEL 0 UTILITY 1 CEILING PLENUM DROPPEDCEILING\", surface class=Roof\n   **   ~~~   ** Adjacent Surface=\"UTILITY 1 DROPPEDCEILING\", surface class=Roof\n   **   ~~~   ** Other errors/warnings may follow about these surfaces.\n   ** Warning ** No floor exists in Zone=\"LEVEL 0 CEILING PLENUM ZONE\", zone floor area is zero. All values for this zone that are entered per floor area will be zero.\n   ** Warning ** CheckUsedConstructions: There are 1 nominally unused constructions in input.\n   **   ~~~   ** For explicit details on each unused construction, use Output:Diagnostics,DisplayExtraWarnings;\n   ************* Beginning System Sizing Calculations\n   ************* Beginning Plant Sizing Calculations\n   ** Warning ** GetDXCoils: Coil:Cooling:DX:SingleSpeed=\"COIL COOLING DX SINGLE SPEED 1\":\n   **   ~~~   ** ...At least one of the four input parameters for the latent capacity degradation model\n   **   ~~~   ** ...is set to zero. Therefore, the latent degradation model will not be used for this simulation.\n   ** Warning ** Output:Meter: invalid Name=\"DISTRICTCOOLING:FACILITY\" - not found.\n   ** Warning ** Output:Meter: invalid Name=\"DISTRICTHEATING:FACILITY\" - not found.\n   ** Warning ** Output:Meter:MeterFileOnly requested for \"Electricity:Facility\" (TimeStep), already on \"Output:Meter\". Will report to both eplusout.eso and eplusout.mtr\n   ************* Testing Individual Branch Integrity\n   ************* All Branches passed integrity testing\n   ************* Testing Individual Supply Air Path Integrity\n   ************* All Supply Air Paths passed integrity testing\n   ************* Testing Individual Return Air Path Integrity\n   ************* All Return Air Paths passed integrity testing\n   ************* No node connection errors were found.\n   ************* Beginning Simulation\n   ** Warning ** CalcDoe2DXCoil: Coil:Cooling:DX:SingleSpeed \"COIL COOLING DX SINGLE SPEED 1\" - Full load outlet air dry-bulb temperature < 2C. This indicates the possibility of coil frost/freeze. Outlet temperature = 0.60 C.\n   **   ~~~   **  ...Occurrence info = RUN PERIOD 1, 01/04 11:15 - 11:30\n   **   ~~~   ** ... Possible reasons for low outlet air dry-bulb temperatures are: This DX coil\n   **   ~~~   **    1) may have a low inlet air dry-bulb temperature. Inlet air temperature = 18.376 C.\n   **   ~~~   **    2) may have a low air flow rate per watt of cooling capacity. Check inputs.\n   **   ~~~   **    3) is used as part of a HX assisted cooling coil which uses a high sensible effectiveness. Check inputs.\n   ************* Simulation Error Summary *************\n   ************* There are 5 unused schedules in input.\n   ************* There are 5 unused week schedules in input.\n   ************* There are 38 unused day schedules in input.\n   ************* Use Output:Diagnostics,DisplayUnusedSchedules; to see them.\n   *************\n   ************* ===== Recurring Error Summary =====\n   ************* The following recurring error messages occurred.\n   *************\n   *************  ** Warning ** CalcDoe2DXCoil: Coil:Cooling:DX:SingleSpeed=\"COIL COOLING DX SINGLE SPEED 1\" - Full load outlet temperature indicates a possibility of frost/freeze error continues. Outlet air temperature statistics follow:\n   *************  **   ~~~   **   This error occurred 350 total times;\n   *************  **   ~~~   **   during Warmup 0 times;\n   *************  **   ~~~   **   during Sizing 0 times.\n   *************  **   ~~~   **   Max=1.991117  Min=0.35137\n   *************\n   *************\n   ************* ===== Final Error Summary =====\n   ************* The following error categories occurred.  Consider correcting or noting.\n   ************* InterZone Surface Tilts -- mismatch\n   ************* Nominally Unused Constructions\n   ************* ..The nominally unused constructions warning is provided to alert you to potential conditions that can cause\n   ************* ..extra time during simulation. Each construction is calculated by the algorithm indicated in the HeatBalanceAlgorithm\n   ************* ..object. You may remove the constructions indicated (when you use the DisplayExtraWarnings option).\n   *************\n   ************* EnergyPlus Warmup Error Summary. During Warmup: 0 Warning; 0 Severe Errors.\n   ************* EnergyPlus Sizing Error Summary. During Sizing: 28 Warning; 0 Severe Errors.\n   ************* EnergyPlus Completed Successfully-- 383 Warning; 0 Severe Errors; Elapsed Time=00hr 00min  4.19sec\n",
   "seed_file" : "seb.osm",
   "started_at" : "20170224T180034Z",
   "steps" : [
      {
         "arguments" : {},
         "measure_dir_name" : "TestGemEnv",
         "result" : {
            "completed_at" : "20170224T180037Z",
            "started_at" : "20170224T180036Z",
            "stderr" : "",
            "stdout" : "",
            "step_errors" : [],
            "step_files" : [],
            "step_info" : [ "Loading Gem Info", "Loaded Gem Info" ],
            "step_result" : "Success",
            "step_values" : [],
            "step_warnings" : []
         }
      }
   ],
   "updated_at" : "20170224T180054Z",
   "weather_file" : "srrl_2013_amy.epw"
}
