{
   "completed_at" : "20170224T174446Z",
   "completed_status" : "Success",
   "current_step" : 4,
   "eplusout_err" : "Program Version,EnergyPlus, Version 8.6.0-198c6a3cff, YMD=2017.02.24 10:44,IDD_Version 8.6.0\n   ** Warning ** Timestep: Requested number (1) is less than the suggested minimum of 4.\n   **   ~~~   ** Please see entry for Timestep in Input/Output Reference for discussion of considerations.\n   ************* Beginning Zone Sizing Calculations\n   ** Warning ** ProcessScheduleInput: Schedule:Day:Interval=\"ALL WEEKDAYS\", , One or more values are not integer as required by Schedule Type Limits Name=HVAC OPERATION SCHEDULE TYPE LIMITS\n   ** Warning ** ProcessScheduleInput: DecodeHHMMField, Invalid \"until\" field value is not a multiple of the minutes for each timestep: 12:45\n   **   ~~~   ** Other errors may result. Occurred in Day Schedule=ALL WEEKDAYS 1\n   ** Warning ** ProcessScheduleInput: DecodeHHMMField, Invalid \"until\" field value is not a multiple of the minutes for each timestep: 06:45\n   **   ~~~   ** Other errors may result. Occurred in Day Schedule=ALL WEEKDAYS 2\n   ** Warning ** ProcessScheduleInput: DecodeHHMMField, Invalid \"until\" field value is not a multiple of the minutes for each timestep: 06:15\n   **   ~~~   ** Other errors may result. Occurred in Day Schedule=ALL WEEKDAYS 3\n   ** Warning ** ProcessScheduleInput: DecodeHHMMField, Invalid \"until\" field value is not a multiple of the minutes for each timestep: 06:15\n   **   ~~~   ** Other errors may result. Occurred in Day Schedule=ALL WEEKDAYS 4\n   ** Warning ** ProcessScheduleInput: Schedule:Day:Interval=\"ALL WEEKENDS\", , One or more values are not integer as required by Schedule Type Limits Name=HVAC OPERATION SCHEDULE TYPE LIMITS\n   ** Warning ** ProcessScheduleInput: Schedule:Day:Interval=\"ALL WEEKENDS 7\", , One or more values are not integer as required by Schedule Type Limits Name=HVAC OPERATION SCHEDULE TYPE LIMITS\n   ** Warning ** ProcessScheduleInput: Schedule:Day:Interval=\"BUILDING HVAC OPERATION DEFAULT WEEKDAY SCHEDULE\", , One or more values are not integer as required by Schedule Type Limits Name=HVAC OPERATION SCHEDULE TYPE LIMITS\n   ** Warning ** ProcessScheduleInput: DecodeHHMMField, Invalid \"until\" field value is not a multiple of the minutes for each timestep: 06:15\n   **   ~~~   ** Other errors may result. Occurred in Day Schedule=BUILDING PLUG LOAD DEFAULT WEEKDAY SCHEDULE\n   ** Warning ** ProcessScheduleInput: DecodeHHMMField, Invalid \"until\" field value is not a multiple of the minutes for each timestep: 06:45\n   **   ~~~   ** Other errors may result. Occurred in Day Schedule=BUILDING WATER USE DEFAULT WEEKDAY SCHEDULE\n   ** Warning ** ProcessScheduleInput: Schedule:Day:Interval=\"SIMUWATT DEFAULT SUMMER CLG SCH - 68F\", Blank Schedule Type Limits Name input -- will not be validated.\n   ** Warning ** ProcessScheduleInput: Schedule:Day:Interval=\"SIMUWATT DEFAULT SUMMER HTG SCH - 68F\", Blank Schedule Type Limits Name input -- will not be validated.\n   ** Warning ** ProcessScheduleInput: Schedule:Day:Interval=\"SIMUWATT DEFAULT WINTER CLG SCH - 68F\", Blank Schedule Type Limits Name input -- will not be validated.\n   ** Warning ** ProcessScheduleInput: Schedule:Day:Interval=\"SIMUWATT DEFAULT WINTER HTG SCH - 68F\", Blank Schedule Type Limits Name input -- will not be validated.\n   ** Warning ** ProcessScheduleInput: DecodeHHMMField, Invalid \"until\" field value is not a multiple of the minutes for each timestep: 16:15\n   **   ~~~   ** Other errors may result. Occurred in Day Schedule=SPACE OCCUPANCY DEFAULT WEEKDAY SCHEDULE\n   ** Warning ** ProcessScheduleInput: Schedule:Constant=\"ALWAYS OFF DISCRETE\", Blank Schedule Type Limits Name input -- will not be validated.\n   ** Warning ** ProcessScheduleInput: Schedule:Constant=\"ALWAYS ON CONTINUOUS\", Blank Schedule Type Limits Name input -- will not be validated.\n   ** Warning ** GetHTSurfaceData: Surfaces with interface to Ground found but no \"Ground Temperatures\" were input.\n   **   ~~~   ** Found first in surface=ENTRY WAY  FLOOR\n   **   ~~~   ** Defaults, constant throughout the year of (18.0) will be used.\n   ** Warning ** GetSurfaceData: InterZone Surface Tilts do not match as expected.\n   **   ~~~   **   Tilt=0.0 in Surface=LEVEL 0 ENTRY WAY  CEILING PLENUM DROPPEDCEILING, Zone=LEVEL 0 CEILING PLENUM ZONE\n   **   ~~~   **   Tilt=0.0 in Surface=ENTRY WAY  DROPPEDCEILING, Zone=SINGLE ZONE\n   ** Warning ** GetSurfaceData: InterZone Surface Classes do not match as expected.\n   **   ~~~   ** Surface=\"LEVEL 0 ENTRY WAY  CEILING PLENUM DROPPEDCEILING\", surface class=Roof\n   **   ~~~   ** Adjacent Surface=\"ENTRY WAY  DROPPEDCEILING\", surface class=Roof\n   **   ~~~   ** Other errors/warnings may follow about these surfaces.\n   ** Warning ** GetSurfaceData: InterZone Surface Tilts do not match as expected.\n   **   ~~~   **   Tilt=0.0 in Surface=LEVEL 0 OPEN AREA 1 CEILING PLENUM DROPPEDCEILING, Zone=LEVEL 0 CEILING PLENUM ZONE\n   **   ~~~   **   Tilt=0.0 in Surface=OPEN AREA 1 DROPPEDCEILING, Zone=SINGLE ZONE\n   ** Warning ** GetSurfaceData: InterZone Surface Classes do not match as expected.\n   **   ~~~   ** Surface=\"LEVEL 0 OPEN AREA 1 CEILING PLENUM DROPPEDCEILING\", surface class=Roof\n   **   ~~~   ** Adjacent Surface=\"OPEN AREA 1 DROPPEDCEILING\", surface class=Roof\n   **   ~~~   ** Other errors/warnings may follow about these surfaces.\n   ** Warning ** GetSurfaceData: InterZone Surface Tilts do not match as expected.\n   **   ~~~   **   Tilt=0.0 in Surface=LEVEL 0 SMALL OFFICE 1 CEILING PLENUM DROPPEDCEILING, Zone=LEVEL 0 CEILING PLENUM ZONE\n   **   ~~~   **   Tilt=0.0 in Surface=SMALL OFFICE 1 DROPPEDCEILING, Zone=SINGLE ZONE\n   ** Warning ** GetSurfaceData: InterZone Surface Classes do not match as expected.\n   **   ~~~   ** Surface=\"LEVEL 0 SMALL OFFICE 1 CEILING PLENUM DROPPEDCEILING\", surface class=Roof\n   **   ~~~   ** Adjacent Surface=\"SMALL OFFICE 1 DROPPEDCEILING\", surface class=Roof\n   **   ~~~   ** Other errors/warnings may follow about these surfaces.\n   ** Warning ** GetSurfaceData: InterZone Surface Tilts do not match as expected.\n   **   ~~~   **   Tilt=0.0 in Surface=LEVEL 0 UTILITY 1 CEILING PLENUM DROPPEDCEILING, Zone=LEVEL 0 CEILING PLENUM ZONE\n   **   ~~~   **   Tilt=0.0 in Surface=UTILITY 1 DROPPEDCEILING, Zone=SINGLE ZONE\n   ** Warning ** GetSurfaceData: InterZone Surface Classes do not match as expected.\n   **   ~~~   ** Surface=\"LEVEL 0 UTILITY 1 CEILING PLENUM DROPPEDCEILING\", surface class=Roof\n   **   ~~~   ** Adjacent Surface=\"UTILITY 1 DROPPEDCEILING\", surface class=Roof\n   **   ~~~   ** Other errors/warnings may follow about these surfaces.\n   ** Warning ** No floor exists in Zone=\"LEVEL 0 CEILING PLENUM ZONE\", zone floor area is zero. All values for this zone that are entered per floor area will be zero.\n   ** Warning ** CheckUsedConstructions: There are 3 nominally unused constructions in input.\n   **   ~~~   ** For explicit details on each unused construction, use Output:Diagnostics,DisplayExtraWarnings;\n   ** Warning ** GetSimpleAirModelInputs: ZoneInfiltration:DesignFlowRate=\"LEVEL 0 CEILING PLENUM ZONE SPACE TYPE 1 LEAKY BLDG INFILTRATION\", Design Flow Rate Calculation Method specifies Flow per Zone Floor Area, but Zone Floor Area = 0.  0 Infiltration will result.\n   ************* Beginning System Sizing Calculations\n   ************* Beginning Plant Sizing Calculations\n   ** Warning ** GetDXCoils: Coil:Cooling:DX:SingleSpeed=\"COIL COOLING DX SINGLE SPEED 1\":\n   **   ~~~   ** ...At least one of the four input parameters for the latent capacity degradation model\n   **   ~~~   ** ...is set to zero. Therefore, the latent degradation model will not be used for this simulation.\n   ** Warning ** Output:Meter: invalid Name=\"DISTRICTCOOLING:FACILITY\" - not found.\n   ** Warning ** Output:Meter: invalid Name=\"DISTRICTHEATING:FACILITY\" - not found.\n   ** Warning ** Output:Meter:MeterFileOnly requested for \"Electricity:Facility\" (TimeStep), already on \"Output:Meter\". Will report to both eplusout.eso and eplusout.mtr\n   ************* Testing Individual Branch Integrity\n   ************* All Branches passed integrity testing\n   ************* Testing Individual Supply Air Path Integrity\n   ************* All Supply Air Paths passed integrity testing\n   ************* Testing Individual Return Air Path Integrity\n   ************* All Return Air Paths passed integrity testing\n   ************* No node connection errors were found.\n   ************* Beginning Simulation\n   ** Warning ** CalcDoe2DXCoil: Coil:Cooling:DX:SingleSpeed \"COIL COOLING DX SINGLE SPEED 1\" - Full load outlet air dry-bulb temperature < 2C. This indicates the possibility of coil frost/freeze. Outlet temperature = 1.58 C.\n   **   ~~~   **  ...Occurrence info = RUN PERIOD 1, 01/24 13:30 - 14:00\n   **   ~~~   ** ... Possible reasons for low outlet air dry-bulb temperatures are: This DX coil\n   **   ~~~   **    1) may have a low inlet air dry-bulb temperature. Inlet air temperature = 19.111 C.\n   **   ~~~   **    2) may have a low air flow rate per watt of cooling capacity. Check inputs.\n   **   ~~~   **    3) is used as part of a HX assisted cooling coil which uses a high sensible effectiveness. Check inputs.\n   ************* Simulation Error Summary *************\n   ************* There are 5 unused schedules in input.\n   ************* There are 5 unused week schedules in input.\n   ************* There are 38 unused day schedules in input.\n   ************* Use Output:Diagnostics,DisplayUnusedSchedules; to see them.\n   *************\n   ************* ===== Recurring Error Summary =====\n   ************* The following recurring error messages occurred.\n   *************\n   *************  ** Warning ** CalcDoe2DXCoil: Coil:Cooling:DX:SingleSpeed=\"COIL COOLING DX SINGLE SPEED 1\" - Full load outlet temperature indicates a possibility of frost/freeze error continues. Outlet air temperature statistics follow:\n   *************  **   ~~~   **   This error occurred 46 total times;\n   *************  **   ~~~   **   during Warmup 0 times;\n   *************  **   ~~~   **   during Sizing 0 times.\n   *************  **   ~~~   **   Max=1.95855  Min=1.298465\n   *************\n   *************\n   ************* ===== Final Error Summary =====\n   ************* The following error categories occurred.  Consider correcting or noting.\n   ************* InterZone Surface Tilts -- mismatch\n   ************* Nominally Unused Constructions\n   ************* ..The nominally unused constructions warning is provided to alert you to potential conditions that can cause\n   ************* ..extra time during simulation. Each construction is calculated by the algorithm indicated in the HeatBalanceAlgorithm\n   ************* ..object. You may remove the constructions indicated (when you use the DisplayExtraWarnings option).\n   *************\n   ************* EnergyPlus Warmup Error Summary. During Warmup: 0 Warning; 0 Severe Errors.\n   ************* EnergyPlus Sizing Error Summary. During Sizing: 29 Warning; 0 Severe Errors.\n   ************* EnergyPlus Completed Successfully-- 80 Warning; 0 Severe Errors; Elapsed Time=00hr 00min  3.86sec\n",
   "seed_file" : "seb.osm",
   "started_at" : "20170224T174426Z",
   "steps" : [
      {
         "arguments" : {},
         "measure_dir_name" : "IncreaseWallRValue",
         "result" : {
            "completed_at" : "20170224T174428Z",
            "started_at" : "20170224T174428Z",
            "stderr" : "",
            "stdout" : "",
            "step_errors" : [],
            "step_files" : [],
            "step_final_condition" : "The existing insulation for exterior walls was increased by 30.0%. This was applied to 1,362 (ft^2) across 1 exterior wall constructions: EXTERIOR-WALL adj exterior wall insulation (R-16.5).",
            "step_info" : [
               "For construction'EXTERIOR-WALL adj exterior wall insulation', material'Wood-Framed - 4 in. Studs - 16 in. OC - R-11 Cavity Insulation_R-value 30.0% increase' was altered."
            ],
            "step_initial_condition" : "The building had 1 exterior wall constructions: EXTERIOR-WALL (R-14.0).",
            "step_result" : "Success",
            "step_values" : [
               {
                  "name" : "r_value",
                  "value" : 30
               }
            ],
            "step_warnings" : []
         }
      },
      {
         "arguments" : {
            "r_value" : 45
         },
         "measure_dir_name" : "IncreaseRoofRValue",
         "result" : {
            "completed_at" : "20170224T174428Z",
            "started_at" : "20170224T174428Z",
            "stderr" : "",
            "stdout" : "",
            "step_errors" : [],
            "step_files" : [],
            "step_final_condition" : "The existing insulation for roofs was increased by 45.0%. This was applied to 885 (ft^2) across 1 roof constructions: EXTERIOR-ROOF adj roof insulation (R-44.2).",
            "step_info" : [
               "For construction'EXTERIOR-ROOF adj roof insulation', material'Mineral Fiber Batt Insulation - 10 in._R-value 45.0% increase' was altered."
            ],
            "step_initial_condition" : "The building had 1 roof constructions: EXTERIOR-ROOF (R-31.2).",
            "step_result" : "Success",
            "step_values" : [
               {
                  "name" : "r_value",
                  "value" : 45
               }
            ],
            "step_warnings" : [
               "Measure couldn't find the construction named 'EXTERIOR-WALL adj exterior wall insulation' in the exterior surface hash."
            ]
         }
      },
      {
         "arguments" : {
            "flowPerZoneFloorArea" : 10.76
         },
         "measure_dir_name" : "SetEplusInfiltration",
         "result" : {
            "completed_at" : "20170224T174433Z",
            "started_at" : "20170224T174433Z",
            "stderr" : "",
            "stdout" : "",
            "step_errors" : [],
            "step_files" : [],
            "step_final_condition" : "The building finished with flow per zone floor area values ranging from 10.76 to 10.76.",
            "step_info" : [
               "Setting flow per zone floor area of Entry way Leaky Bldg Infiltration 1 to 10.76(m^3/s-m^2) and changing design flow calculation rate method to Flow/Zone. Original design flow calculation method was Flow/Zone.",
               "Setting flow per zone floor area of Open area Leaky Bldg Infiltration 1 to 10.76(m^3/s-m^2) and changing design flow calculation rate method to Flow/Zone. Original design flow calculation method was Flow/Zone.",
               "Setting flow per zone floor area of Utility Leaky Bldg Infiltration 1 to 10.76(m^3/s-m^2) and changing design flow calculation rate method to Flow/Zone. Original design flow calculation method was Flow/Zone.",
               "Setting flow per zone floor area of Space Type 1 Leaky Bldg Infiltration to 10.76(m^3/s-m^2) and changing design flow calculation rate method to Flow/Zone. Original design flow calculation method was Flow/ExteriorArea.",
               "Setting flow per zone floor area of Small office Leaky Bldg Infiltration 1 to 10.76(m^3/s-m^2) and changing design flow calculation rate method to Flow/Zone. Original design flow calculation method was Flow/Zone."
            ],
            "step_initial_condition" : "The building has 5 infiltrationObject objects. None of the infiltrationObjects started as Flow/Area.",
            "step_result" : "Success",
            "step_values" : [
               {
                  "name" : "flowPerZoneFloorArea",
                  "value" : 10.76
               }
            ],
            "step_warnings" : []
         }
      },
      {
         "arguments" : {
            "output_format" : "CSV"
         },
         "measure_dir_name" : "DencityReports",
         "result" : {
            "completed_at" : "20170224T174444Z",
            "started_at" : "20170224T174443Z",
            "stderr" : "",
            "stdout" : "",
            "step_errors" : [],
            "step_files" : [
               "E:/openstudio-env/compact_osw/run/003_DencityReports/report_metadata.csv",
               "E:/openstudio-env/compact_osw/run/003_DencityReports/report_timeseries.csv"
            ],
            "step_final_condition" : "DEnCity Report generated successfully.",
            "step_info" : [
               "Model loaded",
               "Sql loaded",
               "Saving Dencity metadata csv file",
               "Saved Dencity metadata as report_metadata.csv",
               "The following meters were found: []",
               "Units were found for all available meters",
               "The following meter units were found: []",
               "get_timeseries_flag is set to true",
               "Retrieving timeseries data",
               "DeltaMake=0s",
               "Saved timeseries data as report_timeseries.csv",
               "DeltaWrite=0s",
               "Total Timeseries Time: 0"
            ],
            "step_result" : "Success",
            "step_values" : [
               {
                  "name" : "output_format",
                  "value" : "CSV"
               },
               {
                  "name" : "building_area",
                  "units" : "m2",
                  "value" : 82.209999999999994
               },
               {
                  "name" : "electricity_heating_eui",
                  "units" : "MJ/m2",
                  "value" : 468.1912176134291
               },
               {
                  "name" : "electricity_cooling_eui",
                  "units" : "MJ/m2",
                  "value" : 257217.6134290233
               },
               {
                  "name" : "electricity_interior_lighting_eui",
                  "units" : "MJ/m2",
                  "value" : 294.36808174188059
               },
               {
                  "name" : "electricity_exterior_lighting_eui",
                  "units" : "MJ/m2",
                  "value" : 0
               },
               {
                  "name" : "electricity_interior_equipment_eui",
                  "units" : "MJ/m2",
                  "value" : 487.16701131249238
               },
               {
                  "name" : "electricity_exterior_equipment_eui",
                  "units" : "MJ/m2",
                  "value" : 0
               },
               {
                  "name" : "electricity_fans_eui",
                  "units" : "MJ/m2",
                  "value" : 1942910.8380975553
               },
               {
                  "name" : "electricity_pumps_eui",
                  "units" : "MJ/m2",
                  "value" : 0.60819851599562103
               },
               {
                  "name" : "electricity_heat_rejection_eui",
                  "units" : "MJ/m2",
                  "value" : 0
               },
               {
                  "name" : "electricity_humidification_eui",
                  "units" : "MJ/m2",
                  "value" : 0
               },
               {
                  "name" : "electricity_heat_recovery_eui",
                  "units" : "MJ/m2",
                  "value" : 0
               },
               {
                  "name" : "electricity_water_systems_eui",
                  "units" : "MJ/m2",
                  "value" : 39.16798443011799
               },
               {
                  "name" : "electricity_refrigeration_eui",
                  "units" : "MJ/m2",
                  "value" : 0
               },
               {
                  "name" : "electricity_generators_eui",
                  "units" : "MJ/m2",
                  "value" : 0
               },
               {
                  "name" : "total_electricity_end_use",
                  "units" : "GJ",
                  "value" : 180978.57000000001
               },
               {
                  "name" : "natural_gas_heating_eui",
                  "units" : "MJ/m2",
                  "value" : 10512093.054372948
               },
               {
                  "name" : "natural_gas_cooling_eui",
                  "units" : "MJ/m2",
                  "value" : 0
               },
               {
                  "name" : "natural_gas_interior_lighting_eui",
                  "units" : "MJ/m2",
                  "value" : 0
               },
               {
                  "name" : "natural_gas_exterior_lighting_eui",
                  "units" : "MJ/m2",
                  "value" : 0
               },
               {
                  "name" : "natural_gas_interior_equipment_eui",
                  "units" : "MJ/m2",
                  "value" : 0
               },
               {
                  "name" : "natural_gas_exterior_equipment_eui",
                  "units" : "MJ/m2",
                  "value" : 0
               },
               {
                  "name" : "natural_gas_fans_eui",
                  "units" : "MJ/m2",
                  "value" : 0
               },
               {
                  "name" : "natural_gas_pumps_eui",
                  "units" : "MJ/m2",
                  "value" : 0
               },
               {
                  "name" : "natural_gas_heat_rejection_eui",
                  "units" : "MJ/m2",
                  "value" : 0
               },
               {
                  "name" : "natural_gas_humidification_eui",
                  "units" : "MJ/m2",
                  "value" : 0
               },
               {
                  "name" : "natural_gas_heat_recovery_eui",
                  "units" : "MJ/m2",
                  "value" : 0
               },
               {
                  "name" : "natural_gas_water_systems_eui",
                  "units" : "MJ/m2",
                  "value" : 0
               },
               {
                  "name" : "natural_gas_refrigeration_eui",
                  "units" : "MJ/m2",
                  "value" : 0
               },
               {
                  "name" : "natural_gas_generators_eui",
                  "units" : "MJ/m2",
                  "value" : 0
               },
               {
                  "name" : "total_natural_gas_end_use",
                  "units" : "GJ",
                  "value" : 864199.17000000004
               },
               {
                  "name" : "additional_fuel_heating_eui",
                  "units" : "MJ/m2",
                  "value" : 0
               },
               {
                  "name" : "additional_fuel_cooling_eui",
                  "units" : "MJ/m2",
                  "value" : 0
               },
               {
                  "name" : "additional_fuel_interior_lighting_eui",
                  "units" : "MJ/m2",
                  "value" : 0
               },
               {
                  "name" : "additional_fuel_exterior_lighting_eui",
                  "units" : "MJ/m2",
                  "value" : 0
               },
               {
                  "name" : "additional_fuel_interior_equipment_eui",
                  "units" : "MJ/m2",
                  "value" : 0
               },
               {
                  "name" : "additional_fuel_exterior_equipment_eui",
                  "units" : "MJ/m2",
                  "value" : 0
               },
               {
                  "name" : "additional_fuel_fans_eui",
                  "units" : "MJ/m2",
                  "value" : 0
               },
               {
                  "name" : "additional_fuel_pumps_eui",
                  "units" : "MJ/m2",
                  "value" : 0
               },
               {
                  "name" : "additional_fuel_heat_rejection_eui",
                  "units" : "MJ/m2",
                  "value" : 0
               },
               {
                  "name" : "additional_fuel_humidification_eui",
                  "units" : "MJ/m2",
                  "value" : 0
               },
               {
                  "name" : "additional_fuel_heat_recovery_eui",
                  "units" : "MJ/m2",
                  "value" : 0
               },
               {
                  "name" : "additional_fuel_water_systems_eui",
                  "units" : "MJ/m2",
                  "value" : 0
               },
               {
                  "name" : "additional_fuel_refrigeration_eui",
                  "units" : "MJ/m2",
                  "value" : 0
               },
               {
                  "name" : "additional_fuel_generators_eui",
                  "units" : "MJ/m2",
                  "value" : 0
               },
               {
                  "name" : "total_additional_fuel_end_use",
                  "units" : "GJ",
                  "value" : 0
               },
               {
                  "name" : "district_cooling_heating_eui",
                  "units" : "MJ/m2",
                  "value" : 0
               },
               {
                  "name" : "district_cooling_cooling_eui",
                  "units" : "MJ/m2",
                  "value" : 0
               },
               {
                  "name" : "district_cooling_interior_lighting_eui",
                  "units" : "MJ/m2",
                  "value" : 0
               },
               {
                  "name" : "district_cooling_exterior_lighting_eui",
                  "units" : "MJ/m2",
                  "value" : 0
               },
               {
                  "name" : "district_cooling_interior_equipment_eui",
                  "units" : "MJ/m2",
                  "value" : 0
               },
               {
                  "name" : "district_cooling_exterior_equipment_eui",
                  "units" : "MJ/m2",
                  "value" : 0
               },
               {
                  "name" : "district_cooling_fans_eui",
                  "units" : "MJ/m2",
                  "value" : 0
               },
               {
                  "name" : "district_cooling_pumps_eui",
                  "units" : "MJ/m2",
                  "value" : 0
               },
               {
                  "name" : "district_cooling_heat_rejection_eui",
                  "units" : "MJ/m2",
                  "value" : 0
               },
               {
                  "name" : "district_cooling_humidification_eui",
                  "units" : "MJ/m2",
                  "value" : 0
               },
               {
                  "name" : "district_cooling_heat_recovery_eui",
                  "units" : "MJ/m2",
                  "value" : 0
               },
               {
                  "name" : "district_cooling_water_systems_eui",
                  "units" : "MJ/m2",
                  "value" : 0
               },
               {
                  "name" : "district_cooling_refrigeration_eui",
                  "units" : "MJ/m2",
                  "value" : 0
               },
               {
                  "name" : "district_cooling_generators_eui",
                  "units" : "MJ/m2",
                  "value" : 0
               },
               {
                  "name" : "total_district_cooling_end_use",
                  "units" : "GJ",
                  "value" : 0
               },
               {
                  "name" : "district_heating_heating_eui",
                  "units" : "MJ/m2",
                  "value" : 0
               },
               {
                  "name" : "district_heating_cooling_eui",
                  "units" : "MJ/m2",
                  "value" : 0
               },
               {
                  "name" : "district_heating_interior_lighting_eui",
                  "units" : "MJ/m2",
                  "value" : 0
               },
               {
                  "name" : "district_heating_exterior_lighting_eui",
                  "units" : "MJ/m2",
                  "value" : 0
               },
               {
                  "name" : "district_heating_interior_equipment_eui",
                  "units" : "MJ/m2",
                  "value" : 0
               },
               {
                  "name" : "district_heating_exterior_equipment_eui",
                  "units" : "MJ/m2",
                  "value" : 0
               },
               {
                  "name" : "district_heating_fans_eui",
                  "units" : "MJ/m2",
                  "value" : 0
               },
               {
                  "name" : "district_heating_pumps_eui",
                  "units" : "MJ/m2",
                  "value" : 0
               },
               {
                  "name" : "district_heating_heat_rejection_eui",
                  "units" : "MJ/m2",
                  "value" : 0
               },
               {
                  "name" : "district_heating_humidification_eui",
                  "units" : "MJ/m2",
                  "value" : 0
               },
               {
                  "name" : "district_heating_heat_recovery_eui",
                  "units" : "MJ/m2",
                  "value" : 0
               },
               {
                  "name" : "district_heating_water_systems_eui",
                  "units" : "MJ/m2",
                  "value" : 0
               },
               {
                  "name" : "district_heating_refrigeration_eui",
                  "units" : "MJ/m2",
                  "value" : 0
               },
               {
                  "name" : "district_heating_generators_eui",
                  "units" : "MJ/m2",
                  "value" : 0
               },
               {
                  "name" : "total_district_heating_end_use",
                  "units" : "GJ",
                  "value" : 0
               },
               {
                  "name" : "water_heating_eui",
                  "units" : "m",
                  "value" : 0
               },
               {
                  "name" : "water_cooling_eui",
                  "units" : "m",
                  "value" : 0
               },
               {
                  "name" : "water_interior_lighting_eui",
                  "units" : "m",
                  "value" : 0
               },
               {
                  "name" : "water_exterior_lighting_eui",
                  "units" : "m",
                  "value" : 0
               },
               {
                  "name" : "water_interior_equipment_eui",
                  "units" : "m",
                  "value" : 0
               },
               {
                  "name" : "water_exterior_equipment_eui",
                  "units" : "m",
                  "value" : 0
               },
               {
                  "name" : "water_fans_eui",
                  "units" : "m",
                  "value" : 0
               },
               {
                  "name" : "water_pumps_eui",
                  "units" : "m",
                  "value" : 0
               },
               {
                  "name" : "water_heat_rejection_eui",
                  "units" : "m",
                  "value" : 0
               },
               {
                  "name" : "water_humidification_eui",
                  "units" : "m",
                  "value" : 0
               },
               {
                  "name" : "water_heat_recovery_eui",
                  "units" : "m",
                  "value" : 0
               },
               {
                  "name" : "water_water_systems_eui",
                  "units" : "m",
                  "value" : 0.6560029193528768
               },
               {
                  "name" : "water_refrigeration_eui",
                  "units" : "m",
                  "value" : 0
               },
               {
                  "name" : "water_generators_eui",
                  "units" : "m",
                  "value" : 0
               },
               {
                  "name" : "total_water_end_use",
                  "units" : "m3",
                  "value" : 53.93
               },
               {
                  "name" : "site_energy_use",
                  "units" : "GJ",
                  "value" : 1045177.74
               },
               {
                  "name" : "january_end_use_electricity_eui",
                  "units" : "MJ/m2",
                  "value" : 165159.47156476806
               },
               {
                  "name" : "february_end_use_electricity_eui",
                  "units" : "MJ/m2",
                  "value" : 149157.24541849119
               },
               {
                  "name" : "march_end_use_electricity_eui",
                  "units" : "MJ/m2",
                  "value" : 165566.98918723137
               },
               {
                  "name" : "april_end_use_electricity_eui",
                  "units" : "MJ/m2",
                  "value" : 161249.48877088141
               },
               {
                  "name" : "may_end_use_electricity_eui",
                  "units" : "MJ/m2",
                  "value" : 178262.56631896718
               },
               {
                  "name" : "june_end_use_electricity_eui",
                  "units" : "MJ/m2",
                  "value" : 224512.38177033913
               },
               {
                  "name" : "july_end_use_electricity_eui",
                  "units" : "MJ/m2",
                  "value" : 233705.82591651712
               },
               {
                  "name" : "august_end_use_electricity_eui",
                  "units" : "MJ/m2",
                  "value" : 236491.28308091828
               },
               {
                  "name" : "september_end_use_electricity_eui",
                  "units" : "MJ/m2",
                  "value" : 195348.10705019912
               },
               {
                  "name" : "october_end_use_electricity_eui",
                  "units" : "MJ/m2",
                  "value" : 166666.67267168936
               },
               {
                  "name" : "november_end_use_electricity_eui",
                  "units" : "MJ/m2",
                  "value" : 160115.29015131469
               },
               {
                  "name" : "december_end_use_electricity_eui",
                  "units" : "MJ/m2",
                  "value" : 165178.90954381303
               },
               {
                  "name" : "january_end_use_natural_gas_eui",
                  "units" : "MJ/m2",
                  "value" : 1551696.8738596279
               },
               {
                  "name" : "february_end_use_natural_gas_eui",
                  "units" : "MJ/m2",
                  "value" : 1612431.5776669506
               },
               {
                  "name" : "march_end_use_natural_gas_eui",
                  "units" : "MJ/m2",
                  "value" : 1387191.3392531322
               },
               {
                  "name" : "april_end_use_natural_gas_eui",
                  "units" : "MJ/m2",
                  "value" : 1225726.7972266148
               },
               {
                  "name" : "may_end_use_natural_gas_eui",
                  "units" : "MJ/m2",
                  "value" : 542943.68081741885
               },
               {
                  "name" : "june_end_use_natural_gas_eui",
                  "units" : "MJ/m2",
                  "value" : 122620.11920690915
               },
               {
                  "name" : "july_end_use_natural_gas_eui",
                  "units" : "MJ/m2",
                  "value" : 38964.237927259463
               },
               {
                  "name" : "august_end_use_natural_gas_eui",
                  "units" : "MJ/m2",
                  "value" : 39118.72035032235
               },
               {
                  "name" : "september_end_use_natural_gas_eui",
                  "units" : "MJ/m2",
                  "value" : 207544.09439240969
               },
               {
                  "name" : "october_end_use_natural_gas_eui",
                  "units" : "MJ/m2",
                  "value" : 1023557.9613185745
               },
               {
                  "name" : "november_end_use_natural_gas_eui",
                  "units" : "MJ/m2",
                  "value" : 1214304.8290962172
               },
               {
                  "name" : "december_end_use_natural_gas_eui",
                  "units" : "MJ/m2",
                  "value" : 1545979.8078092691
               },
               {
                  "name" : "january_end_use_additional_fuel_eui",
                  "units" : "MJ/m2",
                  "value" : 0
               },
               {
                  "name" : "february_end_use_additional_fuel_eui",
                  "units" : "MJ/m2",
                  "value" : 0
               },
               {
                  "name" : "march_end_use_additional_fuel_eui",
                  "units" : "MJ/m2",
                  "value" : 0
               },
               {
                  "name" : "april_end_use_additional_fuel_eui",
                  "units" : "MJ/m2",
                  "value" : 0
               },
               {
                  "name" : "may_end_use_additional_fuel_eui",
                  "units" : "MJ/m2",
                  "value" : 0
               },
               {
                  "name" : "june_end_use_additional_fuel_eui",
                  "units" : "MJ/m2",
                  "value" : 0
               },
               {
                  "name" : "july_end_use_additional_fuel_eui",
                  "units" : "MJ/m2",
                  "value" : 0
               },
               {
                  "name" : "august_end_use_additional_fuel_eui",
                  "units" : "MJ/m2",
                  "value" : 0
               },
               {
                  "name" : "september_end_use_additional_fuel_eui",
                  "units" : "MJ/m2",
                  "value" : 0
               },
               {
                  "name" : "october_end_use_additional_fuel_eui",
                  "units" : "MJ/m2",
                  "value" : 0
               },
               {
                  "name" : "november_end_use_additional_fuel_eui",
                  "units" : "MJ/m2",
                  "value" : 0
               },
               {
                  "name" : "december_end_use_additional_fuel_eui",
                  "units" : "MJ/m2",
                  "value" : 0
               },
               {
                  "name" : "january_end_use_district_cooling_eui",
                  "units" : "MJ/m2",
                  "value" : 0
               },
               {
                  "name" : "february_end_use_district_cooling_eui",
                  "units" : "MJ/m2",
                  "value" : 0
               },
               {
                  "name" : "march_end_use_district_cooling_eui",
                  "units" : "MJ/m2",
                  "value" : 0
               },
               {
                  "name" : "april_end_use_district_cooling_eui",
                  "units" : "MJ/m2",
                  "value" : 0
               },
               {
                  "name" : "may_end_use_district_cooling_eui",
                  "units" : "MJ/m2",
                  "value" : 0
               },
               {
                  "name" : "june_end_use_district_cooling_eui",
                  "units" : "MJ/m2",
                  "value" : 0
               },
               {
                  "name" : "july_end_use_district_cooling_eui",
                  "units" : "MJ/m2",
                  "value" : 0
               },
               {
                  "name" : "august_end_use_district_cooling_eui",
                  "units" : "MJ/m2",
                  "value" : 0
               },
               {
                  "name" : "september_end_use_district_cooling_eui",
                  "units" : "MJ/m2",
                  "value" : 0
               },
               {
                  "name" : "october_end_use_district_cooling_eui",
                  "units" : "MJ/m2",
                  "value" : 0
               },
               {
                  "name" : "november_end_use_district_cooling_eui",
                  "units" : "MJ/m2",
                  "value" : 0
               },
               {
                  "name" : "december_end_use_district_cooling_eui",
                  "units" : "MJ/m2",
                  "value" : 0
               },
               {
                  "name" : "january_end_use_district_heating_eui",
                  "units" : "MJ/m2",
                  "value" : 0
               },
               {
                  "name" : "february_end_use_district_heating_eui",
                  "units" : "MJ/m2",
                  "value" : 0
               },
               {
                  "name" : "march_end_use_district_heating_eui",
                  "units" : "MJ/m2",
                  "value" : 0
               },
               {
                  "name" : "april_end_use_district_heating_eui",
                  "units" : "MJ/m2",
                  "value" : 0
               },
               {
                  "name" : "may_end_use_district_heating_eui",
                  "units" : "MJ/m2",
                  "value" : 0
               },
               {
                  "name" : "june_end_use_district_heating_eui",
                  "units" : "MJ/m2",
                  "value" : 0
               },
               {
                  "name" : "july_end_use_district_heating_eui",
                  "units" : "MJ/m2",
                  "value" : 0
               },
               {
                  "name" : "august_end_use_district_heating_eui",
                  "units" : "MJ/m2",
                  "value" : 0
               },
               {
                  "name" : "september_end_use_district_heating_eui",
                  "units" : "MJ/m2",
                  "value" : 0
               },
               {
                  "name" : "october_end_use_district_heating_eui",
                  "units" : "MJ/m2",
                  "value" : 0
               },
               {
                  "name" : "november_end_use_district_heating_eui",
                  "units" : "MJ/m2",
                  "value" : 0
               },
               {
                  "name" : "december_end_use_district_heating_eui",
                  "units" : "MJ/m2",
                  "value" : 0
               },
               {
                  "name" : "life_cycle_cost",
                  "units" : "dollars",
                  "value" : 0
               },
               {
                  "name" : "conditioned_area",
                  "units" : "m2",
                  "value" : 82.209999999999994
               },
               {
                  "name" : "unconditioned_area",
                  "units" : "m2",
                  "value" : 0
               },
               {
                  "name" : "total_site_eui",
                  "units" : "MJ/m2",
                  "value" : 12713618.58
               },
               {
                  "name" : "total_source_eui",
                  "units" : "MJ/m2",
                  "value" : 18367155.050000001
               },
               {
                  "name" : "time_setpoint_not_met_during_occupied_heating",
                  "units" : "hr",
                  "value" : 1928
               },
               {
                  "name" : "time_setpoint_not_met_during_occupied_cooling",
                  "units" : "hr",
                  "value" : 0
               },
               {
                  "name" : "time_setpoint_not_met_during_occupied_hours",
                  "units" : "hr",
                  "value" : 1928
               },
               {
                  "name" : "window_to_wall_ratio_north",
                  "units" : "%",
                  "value" : 2.8599999999999999
               },
               {
                  "name" : "window_to_wall_ratio_south",
                  "units" : "%",
                  "value" : 23.539999999999999
               },
               {
                  "name" : "window_to_wall_ratio_east",
                  "units" : "%",
                  "value" : 13.15
               },
               {
                  "name" : "window_to_wall_ratio_west",
                  "units" : "%",
                  "value" : 7.4299999999999997
               },
               {
                  "name" : "latitude",
                  "units" : "deg",
                  "value" : 39.740000000000002
               },
               {
                  "name" : "longitude",
                  "units" : "deg",
                  "value" : -105.2
               },
               {
                  "name" : "weather_file",
                  "units" : "deg",
                  "value" : 0
               },
               {
                  "name" : "orientation",
                  "units" : "deg",
                  "value" : 0
               },
               {
                  "name" : "total_occupancy",
                  "units" : "people",
                  "value" : 8
               },
               {
                  "name" : "occupant_density",
                  "units" : "people/m2",
                  "value" : 0.09731258487424771
               },
               {
                  "name" : "lighting_power",
                  "units" : "W",
                  "value" : 1450.3199999999999
               },
               {
                  "name" : "lighting_power_density",
                  "units" : "W/m2",
                  "value" : 17.641798511852365
               },
               {
                  "name" : "infiltration_rate",
                  "units" : "ACH",
                  "value" : 4.6751165355744879
               },
               {
                  "display_name" : "NIL",
                  "name" : "number_of_floors",
                  "value" : ""
               },
               {
                  "display_name" : "NIL",
                  "name" : "building_type",
                  "value" : ""
               },
               {
                  "name" : "exterior_wall_area",
                  "units" : "m2",
                  "value" : 126.50295584805117
               },
               {
                  "name" : "exterior_roof_area",
                  "units" : "m2",
                  "value" : 82.20930530555745
               },
               {
                  "name" : "ground_contact_area",
                  "units" : "m2",
                  "value" : 82.209305305557436
               },
               {
                  "name" : "exterior_fenestration_area",
                  "units" : "m2",
                  "value" : 18.394801920000035
               },
               {
                  "name" : "economizer_density",
                  "units" : "",
                  "value" : 0
               },
               {
                  "name" : "aspect_ratio",
                  "units" : "",
                  "value" : 0.74409250879839117
               }
            ],
            "step_warnings" : []
         }
      }
   ],
   "updated_at" : "20170224T174446Z",
   "weather_file" : "srrl_2013_amy.epw"
}
